/*--------------------------------*- C++ -*----------------------------------*\
  =========                 |
  \\      /  F ield         | OpenFOAM: The Open Source CFD Toolbox
   \\    /   O peration     | Website:  https://openfoam.org
    \\  /    A nd           | Version:  10
     \\/     M anipulation  |
\*---------------------------------------------------------------------------*/
FoamFile
{
    format      ascii;
    class       featureEdgeMesh;
    location    "constant/geometry";
    object      building.eMesh;
}
// * * * * * * * * * * * * * * * * * * * * * * * * * * * * * * * * * * * * * //


// points:
8((-0.0381 -0.05715 -1e-05) (-0.0381 0.05715 -1e-05) (0.0381 -0.05715 -1e-05) (0.0381 0.05715 -1e-05) (-0.0381 -0.05715 0.4572) (-0.0381 0.05715 0.4572) (0.0381 -0.05715 0.4572) (0.0381 0.05715 0.4572))

// edges:

12
(
(0 1)
(2 0)
(3 2)
(1 3)
(4 5)
(0 4)
(5 1)
(6 7)
(4 6)
(7 5)
(6 2)
(3 7)
)

// * * * * * * * * * * * * * * * * * * * * * * * * * * * * * * * * * * * * * //


// ************************************************************************* //
