/*--------------------------------*- C++ -*----------------------------------*\
| =========                 |                                                 |
| \\      /  F ield         | OpenFOAM: The Open Source CFD Toolbox           |
|  \\    /   O peration     | Version:  2206                                  |
|   \\  /    A nd           | Website:  www.openfoam.com                      |
|    \\/     M anipulation  |                                                 |
\*---------------------------------------------------------------------------*/
FoamFile
{
    version     2.0;
    format      ascii;
    class       volScalarField;
    location    "0";
    object      k;
}
// * * * * * * * * * * * * * * * * * * * * * * * * * * * * * * * * * * * * * //

dimensions      [0 2 -2 0 0 0 0];

internalField   uniform 3.75e-05;

boundaryField
{
    top
    {
        type            symmetryPlane;
    }
    bottom
    {
        type            kqRWallFunction;
        value           uniform 3.75e-05;
    }
    inlet
    {
        type            fixedValue;
        value           uniform 1e-11;
    }
    outlet
    {
        type            zeroGradient;
    }
    rightWall
    {
        type            symmetryPlane;
    }
    leftWall
    {
        type            symmetryPlane;
    }
    cube
    {
        type            kqRWallFunction;
        value           uniform 3.75e-05;
    }
}


// ************************************************************************* //
