/*--------------------------------*- C++ -*----------------------------------*\
  =========                 |
  \\      /  F ield         | OpenFOAM: The Open Source CFD Toolbox
   \\    /   O peration     | Website:  https://openfoam.org
    \\  /    A nd           | Version:  6
     \\/     M anipulation  |
\*---------------------------------------------------------------------------*/
FoamFile
{
    version     2.0;
    format      ascii;
    class       dictionary;
    object      dynamicMeshDict;
}
// * * * * * * * * * * * * * * * * * * * * * * * * * * * * * * * * * * * * * //

// Default entries defined to activate to the FSI module
dynamicFvMesh   dynamicMotionSolverFvMesh;

// Load the custom librar
motionSolverLibs ("libfsiModule.so");

// Select "threeDoFElasticBodyMotion" for 3DOFs beams
motionSolver    threeDoFElasticBodyMotion;

// Fluid-Structure coupling option (true or false)
coupling        true;

// Inner Distance (to the central-line of the beam model) within which the mesh moves relatively motionless with the model
innerDistance   1;

// Inner Distance (to the central-line of the beam model) outside which the mesh stays static
outerDistance   14;

// Density of fluid
rhoInf          1;

// Time schemes for structural motion solver (valid options include: Newmark, CrankNicolson and symplectic)
solver
{
    type        Newmark;
}

// Boudnary patches linked with the beam
patches (cylinder);

// Origin (starting point) of the beam
origin (0 0 0);

// Direction (vector) of the beam
direction (0 0 1);

// Number of nodes (an integer larger than 2) on the beam
nNode 21;

// Number of modes (an integer no less than 1) considered
nMode 2;

// Frequency of all considered modes
frequency List<scalar>
2
(
0.16
0.16
);

// Length of element segments (the number of elements should equal to $nNode minus 1)
length List<scalar>
20
(
0.5000 
0.5000 
0.5000 
0.5000 
0.5000 
0.5000 
0.5000 
0.5000 
0.5000 
0.5000 
0.5000 
0.5000 
0.5000 
0.5000 
0.5000 
0.5000 
0.5000 
0.5000 
0.5000 
0.5000
);

// Lumped mass (a list of three-component vectors for 3DoFs beams)
mass List<vector>
21
(
(12.337 12.337 12.337)
(24.674 24.674 24.674)
(24.674 24.674 24.674)
(24.674 24.674 24.674)
(24.674 24.674 24.674)
(24.674 24.674 24.674)
(24.674 24.674 24.674)
(24.674 24.674 24.674)
(24.674 24.674 24.674)
(24.674 24.674 24.674)
(24.674 24.674 24.674)
(24.674 24.674 24.674)
(24.674 24.674 24.674)
(24.674 24.674 24.674)
(24.674 24.674 24.674)
(24.674 24.674 24.674)
(24.674 24.674 24.674)
(24.674 24.674 24.674)
(24.674 24.674 24.674)
(24.674 24.674 24.674)
(12.337 12.337 12.337)
);

// Damping ratios of the modes considered (a list of scalars)
dampingRatio List<scalar>
2
(
0
0
);

// The first mode (a list of three-component vectors for 3DoFs beams)
mode1 List<vector>
21
(
(0.00000 0 0)
(0.02447 0 0)
(0.09549 0 0)
(0.20611 0 0)
(0.34549 0 0)
(0.50000 0 0)
(0.65451 0 0)
(0.79389 0 0)
(0.90451 0 0)
(0.97553 0 0)
(1.00000 0 0)
(0.97553 0 0)
(0.90451 0 0)
(0.79389 0 0)
(0.65451 0 0)
(0.50000 0 0)
(0.34549 0 0)
(0.20611 0 0)
(0.09549 0 0)
(0.02447 0 0)
(0.00000 0 0)
);

// The second mode (a list of three-component vectors for 3DoFs beams)
mode2 List<vector>
21
(
(0 0.00000 0)
(0 0.02447 0)
(0 0.09549 0)
(0 0.20611 0)
(0 0.34549 0)
(0 0.50000 0)
(0 0.65451 0)
(0 0.79389 0)
(0 0.90451 0)
(0 0.97553 0)
(0 1.00000 0)
(0 0.97553 0)
(0 0.90451 0)
(0 0.79389 0)
(0 0.65451 0)
(0 0.50000 0)
(0 0.34549 0)
(0 0.20611 0)
(0 0.09549 0)
(0 0.02447 0)
(0 0.00000 0)
);

// ************************************************************************* //
