/*--------------------------------*- C++ -*----------------------------------*\
| =========                 |                                                 |
| \\      /  F ield         | OpenFOAM: The Open Source CFD Toolbox           |
|  \\    /   O peration     | Version:  2.2.1                                 |
|   \\  /    A nd           | Web:      www.OpenFOAM.org                      |
|    \\/     M anipulation  |                                                 |
\*---------------------------------------------------------------------------*/
FoamFile
{
    version     2.0;
    format      ascii;
    class       dictionary;
    object      blockMeshDict;
}
// * * * * * * * * * * * * * * * * * * * * * * * * * * * * * * * * * * * * * //

convertToMeters 1;

vertices		
(
	(0 0 1.5)		
    (10 0 1.5)		
    (10 0 -1.5)		
    (0 0 -1.5)		
    (0 5 1.5)     
    (10 5 1.5)        
    (10 5 -1.5)        
    (0 5 -1.5) 
);

blocks			
(
    hex (0 1 2 3 4 5 6 7) (100 50 30) simpleGrading (1 1 1)  	
);


boundary
(
    top
    {
        type symmetryPlane;	
        faces
        (
            (7 4 5 6)
        );
    }

    bottom
    {
        type wall;
        faces
        (
            (0 3 2 1)
        );
    }

    
    inlet
    {
        type patch;
        faces
        (
            (0 4 7 3)
		);
    }	   	


    outlet
    {
		type patch;
		faces
		(
            (2 6 5 1)
		);
    }


    rightWall
    {
        type symmetryPlane;
        faces
        (
            (3 7 6 2)
        );
    }

    leftWall
    {
        type symmetryPlane;
        faces
        (
            (0 1 5 4)
        );
    }
);


// ************************************************************************* //
