/*--------------------------------*- C++ -*----------------------------------*\
  =========                 |
  \\      /  F ield         | OpenFOAM: The Open Source CFD Toolbox
   \\    /   O peration     | Website:  https://openfoam.org
    \\  /    A nd           | Version:  10
     \\/     M anipulation  |
\*---------------------------------------------------------------------------*/
FoamFile
{
    format      ascii;
    class       polyBoundaryMesh;
    location    "constant/polyMesh";
    object      boundary;
}
// * * * * * * * * * * * * * * * * * * * * * * * * * * * * * * * * * * * * * //

6
(
    inlet
    {
        type            patch;
        nFaces          200;
        startFace       22600;
    }
    outlet
    {
        type            patch;
        nFaces          200;
        startFace       22800;
    }
    ground
    {
        type            wall;
        inGroups        List<word> 1(wall);
        nFaces          800;
        startFace       23000;
    }
    top
    {
        type            patch;
        nFaces          800;
        startFace       23800;
    }
    front
    {
        type            symmetry;
        inGroups        List<word> 1(symmetry);
        nFaces          400;
        startFace       24600;
    }
    back
    {
        type            symmetry;
        inGroups        List<word> 1(symmetry);
        nFaces          400;
        startFace       25000;
    }
)

// ************************************************************************* //
