/*--------------------------------*- C++ -*----------------------------------*\
  =========                 |
  \\      /  F ield         | OpenFOAM: The Open Source CFD Toolbox
   \\    /   O peration     | Website:  https://openfoam.org
    \\  /    A nd           | Version:  10
     \\/     M anipulation  |
\*---------------------------------------------------------------------------*/
FoamFile
{
    format      ascii;
    class       polyBoundaryMesh;
    location    "constant/polyMesh";
    object      boundary;
}
// * * * * * * * * * * * * * * * * * * * * * * * * * * * * * * * * * * * * * //

7
(
    inlet
    {
        type            patch;
        nFaces          950;
        startFace       853917;
    }
    outlet
    {
        type            patch;
        nFaces          200;
        startFace       854867;
    }
    ground
    {
        type            wall;
        inGroups        List<word> 1(wall);
        nFaces          6624;
        startFace       855067;
    }
    top
    {
        type            patch;
        nFaces          800;
        startFace       861691;
    }
    front
    {
        type            symmetry;
        inGroups        List<word> 1(symmetry);
        nFaces          400;
        startFace       862491;
    }
    back
    {
        type            symmetry;
        inGroups        List<word> 1(symmetry);
        nFaces          400;
        startFace       862891;
    }
    building
    {
        type            wall;
        inGroups        List<word> 1(wall);
        nFaces          8778;
        startFace       863291;
    }
)

// ************************************************************************* //
