/*--------------------------------*- C++ -*----------------------------------*\
  =========                 |
  \\      /  F ield         | OpenFOAM: The Open Source CFD Toolbox
   \\    /   O peration     | Website:  https://openfoam.org
    \\  /    A nd           | Version:  10
     \\/     M anipulation  |
\*---------------------------------------------------------------------------*/
FoamFile
{
    format      ascii;
    class       extendedFeatureEdgeMesh;
    location    "constant/extendedFeatureEdgeMesh";
    object      building.extendedFeatureEdgeMesh;
}
// * * * * * * * * * * * * * * * * * * * * * * * * * * * * * * * * * * * * * //

// points
8((0.0134704 -0.0673519 -1e-05) (-0.0673519 0.0134704 -1e-05) (0.0673519 -0.0134704 -1e-05) (-0.0134704 0.0673519 -1e-05) (0.0134704 -0.0673519 0.4572) (-0.0673519 0.0134704 0.4572) (0.0673519 -0.0134704 0.4572) (-0.0134704 0.0673519 0.4572))
// edges

12
(
(0 1)
(2 0)
(3 2)
(1 3)
(4 5)
(0 4)
(5 1)
(6 7)
(4 6)
(7 5)
(6 2)
(3 7)
)

// concaveStart mixedStart nonFeatureStart
8 8 8
// internalStart flatStart openStart multipleStart
12 12 12 12
// normals

12
(
(0 0 -1)
(-0.707107 -0.707107 0)
(0.707107 -0.707107 0)
(0 0 -1)
(0.707107 0.707107 0)
(-0.707107 0.707107 0)
(-0.707107 -0.707107 0)
(0 0 1)
(0.707107 -0.707107 0)
(-0.707107 0.707107 0)
(0 -0 1)
(0.707107 0.707107 0)
)

// normal volume types

12
(
0
0
0
0
0
0
0
0
0
0
0
0
)

// normalDirections

12
(
2(1 -1)
2(1 -1)
2(1 -1)
2(1 -1)
2(1 -1)
2(1 -1)
2(1 -1)
2(1 -1)
2(1 -1)
2(1 -1)
2(1 -1)
2(1 -1)
)

// edgeNormals

12
(
2(0 1)
2(0 2)
2(3 4)
2(3 5)
2(6 7)
2(6 8)
2(1 9)
2(10 11)
2(10 8)
2(7 9)
2(4 2)
2(11 5)
)

// featurePointNormals

8
(
3(0 1 2)
3(0 1 5)
3(0 2 4)
3(3 4 5)
3(6 7 8)
3(6 7 9)
3(10 11 8)
3(10 11 9)
)

// featurePointEdges

8
(
3(0 5 1)
3(3 6 0)
3(2 10 1)
3(2 11 3)
3(4 8 5)
3(6 9 4)
3(7 10 8)
3(9 11 7)
)

// regionEdges
0()


// ************************************************************************* //
