/*--------------------------------*- C++ -*----------------------------------*\
  =========                 |
  \\      /  F ield         | OpenFOAM: The Open Source CFD Toolbox
   \\    /   O peration     | Website:  https://openfoam.org
    \\  /    A nd           | Version:  10
     \\/     M anipulation  |
\*---------------------------------------------------------------------------*/
FoamFile
{
    format      ascii;
    class       dictionary;
    object      blockMeshDict;
}
// * * * * * * * * * * * * * * * * * * * * * * * * * * * * * * * * * * * * * //

backgroundMesh
{
    xMin       -3.0; 
    xMax    	9.0;
    yMin       -3.0;
    yMax    	3.0;
    zMin    	0.0;
    zMax    	3.0;
    xCells  	40;
    yCells  	20;
    zCells  	10;
    xGrading  	1;
    yGrading  	1;
    zGrading  	2;
}

convertToMeters 1;

vertices
(
    ($!backgroundMesh/xMin $!backgroundMesh/yMin $!backgroundMesh/zMin)
    ($!backgroundMesh/xMax $!backgroundMesh/yMin $!backgroundMesh/zMin)
    ($!backgroundMesh/xMax $!backgroundMesh/yMax $!backgroundMesh/zMin)
    ($!backgroundMesh/xMin $!backgroundMesh/yMax $!backgroundMesh/zMin)

    ($!backgroundMesh/xMin $!backgroundMesh/yMin $!backgroundMesh/zMax)
    ($!backgroundMesh/xMax $!backgroundMesh/yMin $!backgroundMesh/zMax)
    ($!backgroundMesh/xMax $!backgroundMesh/yMax $!backgroundMesh/zMax)
    ($!backgroundMesh/xMin $!backgroundMesh/yMax $!backgroundMesh/zMax)
);

blocks
(
    hex (0 1 2 3 4 5 6 7)
    (
        $!backgroundMesh/xCells
        $!backgroundMesh/yCells
        $!backgroundMesh/zCells
    )
    simpleGrading ($!backgroundMesh/xGrading $!backgroundMesh/yGrading $!backgroundMesh/zGrading)
);

boundary
(
    inlet
    {
        type patch;
        faces
        (
            (0 3 7 4)
        );
    }

    outlet
    {
        type patch;
        faces
        (
            (1 5 6 2)
        );
    }

    ground
    {
        type wall;
        faces
        (
            (0 1 2 3)
        );
    }
    
    top
    {
        type patch;
        faces
        (
            (4 7 6 5)
        );
    }

    front
    {
        type symmetry;
        faces
        (
            (0 4 5 1)
        );
    }
    
    back
    {
        type symmetry;
        faces
        (
            (3 2 6 7)
        );
    }
);

// ************************************************************************* //
